"--------------------------------------------------------------------------------------------"
"Выходные файлы будут помечены тегами 'pool_fire', 'TITLE' это просто описание"
"--------------------------------------------------------------------------------------------"
&HEAD CHID = 'pool_fire', TITLE = 'Example of a pool fire'  /

"--------------------------------------------------------------------------------------------"
"Сетка с количеством ячеек 25/25/50 по осям X/Y/Z которая растянута X/Y/Z = -2.5/-2.5/0 to 2.5/2.5/10 m"
"--------------------------------------------------------------------------------------------"
&MESH IJK = 25,25,50, XB = -2.5,2.5, -2.5,2.5, 0.0,10 /

"--------------------------------------------------------------------------------------------"
"Время окончания моделирования - 30 с"
"--------------------------------------------------------------------------------------------"
&TIME T_END = 30.0 / End of simulation time is 30 s

"--------------------------------------------------------------------------------------------"
"Указание топлива FDS по умолчанию 'METHANE' для реакции"
"--------------------------------------------------------------------------------------------"
&REAC FUEL = 'METHANE' /

"--------------------------------------------------------------------------------------------"
"Поверхность «BURNER» со скоростью выделения тепла 1000 кВт/м^2"
"--------------------------------------------------------------------------------------------"
&SURF ID = 'BURNER', HRRPUA = 1000., COLOR = 'RASPBERRY' / Surface with ID /

"--------------------------------------------------------------------------------------------"
"Вент в плоскости X-Y при Z = 0, который простирается от X/Y = -0,5/-0,5 до 0,5/0,5"
"Поверхность 'BURNER' назначена для вентиляционного отверстия"
"--------------------------------------------------------------------------------------------"
&VENT XB = -0.5,0.5, -0.5,0.5, 0.0,0.0, SURF_ID='BURNER'/

"--------------------------------------------------------------------------------------------"
"Файл среза в плоскости Y-Z при X = 0 с величиной 'температура'"
"CELL_CENTERED предотвращает интерполяцию результатов FDS по углам ячеек."
"--------------------------------------------------------------------------------------------"
&SLCF PBX = 0, QUANTITY = 'TEMPERATURE', CELL_CENTERED = .TRUE. /

"--------------------------------------------------------------------------------------------"
"FDS не следит за этой линией"
"--------------------------------------------------------------------------------------------"
&TAIL /